
 OpenBabel04271818103D

 36 36  0  0  0  0  0  0  0  0999 V2000
    8.9218    4.0417    3.0100 C   0  0  0  0  0  0  0  0  0  0  0  0
    9.0625    3.2757    1.6995 C   0  0  0  0  0  0  0  0  0  0  0  0
    7.7669    2.5583    1.2985 C   0  0  0  0  0  0  0  0  0  0  0  0
    7.9074    1.7929    0.0061 C   0  0  0  0  0  0  0  0  0  0  0  0
    6.8901    1.5940   -0.8513 C   0  0  0  0  0  0  0  0  0  0  0  0
    7.0038    0.8909   -2.1760 C   0  0  0  0  0  0  0  0  0  0  0  0
    7.2683    1.8816   -3.2696 C   0  0  0  0  0  0  0  0  0  0  0  0
    8.3753    1.8628   -4.0259 C   0  0  0  0  0  0  0  0  0  0  0  0
    8.6528    2.8867   -4.9995 C   0  0  0  0  0  0  0  0  0  0  0  0
    9.7610    2.9020   -5.7525 C   0  0  0  0  0  0  0  0  0  0  0  0
    9.9856    4.0131   -6.6999 C   0  0  0  0  0  0  0  0  0  0  0  0
    9.1570    4.9838   -6.8518 N   0  0  0  0  0  0  0  0  0  0  0  0
    9.4227    5.9822   -7.7393 C   0  0  0  0  0  0  0  0  0  0  0  0
    8.7668    7.0282   -7.7696 O   0  0  0  0  0  0  0  0  0  0  0  0
   10.4773    5.7525   -8.7625 C   0  0  0  0  0  0  0  0  0  0  0  0
   11.3858    4.6700   -8.3358 C   0  0  0  0  0  0  0  0  0  0  0  0
   12.5104    4.5260   -9.0560 O   0  0  0  0  0  0  0  0  0  0  0  0
   11.1564    3.8592   -7.3702 N   0  0  0  0  0  0  0  0  0  0  0  0
    9.8940    4.4410    3.3194 H   0  0  0  0  0  0  0  0  0  0  0  0
    8.5514    3.4009    3.8169 H   0  0  0  0  0  0  0  0  0  0  0  0
    8.2347    4.8865    2.8984 H   0  0  0  0  0  0  0  0  0  0  0  0
    9.8729    2.5442    1.8060 H   0  0  0  0  0  0  0  0  0  0  0  0
    9.3653    3.9768    0.9128 H   0  0  0  0  0  0  0  0  0  0  0  0
    6.9613    3.2974    1.2075 H   0  0  0  0  0  0  0  0  0  0  0  0
    7.4854    1.8544    2.0901 H   0  0  0  0  0  0  0  0  0  0  0  0
    8.8958    1.4098   -0.2418 H   0  0  0  0  0  0  0  0  0  0  0  0
    5.8994    1.9698   -0.6052 H   0  0  0  0  0  0  0  0  0  0  0  0
    6.0652    0.3661   -2.3905 H   0  0  0  0  0  0  0  0  0  0  0  0
    7.7860    0.1226   -2.1420 H   0  0  0  0  0  0  0  0  0  0  0  0
    6.5247    2.6650   -3.4074 H   0  0  0  0  0  0  0  0  0  0  0  0
    9.1161    1.0789   -3.8853 H   0  0  0  0  0  0  0  0  0  0  0  0
    7.9251    3.6930   -5.0880 H   0  0  0  0  0  0  0  0  0  0  0  0
   10.5219    2.1313   -5.6962 H   0  0  0  0  0  0  0  0  0  0  0  0
   11.0518    6.6747   -8.8931 H   0  0  0  0  0  0  0  0  0  0  0  0
   10.0019    5.4688   -9.7061 H   0  0  0  0  0  0  0  0  0  0  0  0
   12.5910    5.1605   -9.7854 H   0  0  0  0  0  0  0  0  0  0  0  0
  1  2  1  0  0  0  0
  1 19  1  0  0  0  0
  1 20  1  0  0  0  0
  1 21  1  0  0  0  0
  2  3  1  0  0  0  0
  2 22  1  0  0  0  0
  2 23  1  0  0  0  0
  3  4  1  0  0  0  0
  3 24  1  0  0  0  0
  3 25  1  0  0  0  0
  4  5  2  3  0  0  0
  4 26  1  0  0  0  0
  5  6  1  0  0  0  0
  5 27  1  0  0  0  0
  6  7  1  0  0  0  0
  6 28  1  0  0  0  0
  6 29  1  0  0  0  0
  7  8  2  3  0  0  0
  7 30  1  0  0  0  0
  8  9  1  0  0  0  0
  8 31  1  0  0  0  0
  9 10  2  3  0  0  0
  9 32  1  0  0  0  0
 10 11  1  0  0  0  0
 10 33  1  0  0  0  0
 11 12  2  0  0  0  0
 11 18  1  0  0  0  0
 12 13  1  0  0  0  0
 13 14  2  0  0  0  0
 13 15  1  0  0  0  0
 15 16  1  0  0  0  0
 15 34  1  0  0  0  0
 15 35  1  0  0  0  0
 16 17  1  0  0  0  0
 16 18  2  0  0  0  0
 17 36  1  0  0  0  0
M  END
$$$$
